
**** 05/17/22 11:59:11 ******* PSpice 17.4.0 (Nov 2018) ******* ID# 0 ********

 ** Profile: "SCHEMATIC1-TransientAnalysis"  [ C:\Users\a0232073\Desktop\GWL_Models\LMH34400\lmh34400-pspicefiles\schematic1\transien


 ****     CIRCUIT DESCRIPTION


******************************************************************************




** Creating circuit file "TransientAnalysis.cir" 
** WARNING: THIS AUTOMATICALLY GENERATED FILE MAY BE OVERWRITTEN BY SUBSEQUENT SIMULATIONS

*Libraries: 
* Profile Libraries :
* Local Libraries :
.LIB "../../../LMH34400.lib" 
* From [PSPICE NETLIST] section of C:\cds_spb_home\cdssetup\OrCAD_PSpiceTIPSpice_Install\17.4.0\PSpice.ini file:
.lib "nom_pspti.lib" 
.lib "nom.lib" 

*Analysis directives: 
.TRAN  0 30ns 0 0.1e-9 
.OPTIONS ADVCONV
.OPTIONS FILEMODELSEARCH
.PROBE64 V(alias(*)) I(alias(*)) W(alias(*)) D(alias(*)) NOISE(alias(*)) 
.INC "..\SCHEMATIC1.net" 



**** INCLUDING SCHEMATIC1.net ****
* source LMH34400
C_Cj         VAPD N00259  1e-12  TC=0,0 
V_Vdd         VDD 0 3.3Vdc
V_Vapd         VAPD 0 0Vdc
R_Rload         0 OUT  100 TC=0,0 
I_I1         N00259 VAPD DC 0Adc AC 0Aac
+SIN 0 20e-6 100e6 0 0 0
X_U1         N00259 VDD 0 0 0 OUT LMH34400

**** RESUMING TransientAnalysis.cir ****
.END

**** 05/17/22 11:59:11 ******* PSpice 17.4.0 (Nov 2018) ******* ID# 0 ********

 ** Profile: "SCHEMATIC1-TransientAnalysis"  [ C:\Users\a0232073\Desktop\GWL_Models\LMH34400\lmh34400-pspicefiles\schematic1\transien


 ****     Diode MODEL PARAMETERS


******************************************************************************




               X_U1.X_U1.DVNF  X_U1.X_U2.DVN   
          IS  100.000000E-18  100.000000E-18 
          KF    1.000000E-09    1.000000E-09 


**** 05/17/22 11:59:11 ******* PSpice 17.4.0 (Nov 2018) ******* ID# 0 ********

 ** Profile: "SCHEMATIC1-TransientAnalysis"  [ C:\Users\a0232073\Desktop\GWL_Models\LMH34400\lmh34400-pspicefiles\schematic1\transien


 ****     Resistor MODEL PARAMETERS


******************************************************************************




               X_U1.R_NOISE    X_U1.R_NOISELESS 
  T_Measured   27              27            
   T_Current   25            -273.15         
           R    1               1            


**** 05/17/22 11:59:11 ******* PSpice 17.4.0 (Nov 2018) ******* ID# 0 ********

 ** Profile: "SCHEMATIC1-TransientAnalysis"  [ C:\Users\a0232073\Desktop\GWL_Models\LMH34400\lmh34400-pspicefiles\schematic1\transien


 ****     Voltage Controlled Switch MODEL PARAMETERS


******************************************************************************




               X_U1.X_S11._S11 X_U1.X_S12._S12 X_U1.X_S20._S20 X_U1.X_S21._S21 
         RON    1.000000E-03    1.000000E-03    1.000000E-03    1.000000E+06 
        ROFF    1               1               1.000000E+06    1.000000E-03 
         VON     .085            .05            1.6             1.6          
        VOFF     .07             .045           1.2             1.2          


               X_U1.X_S29._S29 X_U1.X_S30._S30 X_U1.X_S31._S31 X_U1.X_S36._S36 
         RON    1.000000E+09    1               1               1.000000E-03 
        ROFF    1               1.000000E-06    1.000000E-06    1.000000E+03 
         VON    1.6           100.000000E-06  100.000000E-06     .02         
        VOFF    1.2             0               0               -.02         


               X_U1.X_S37._S37 X_U1.X_S38._S38 X_U1.X_S39._S39 X_U1.X_S40._S40 
         RON    1.000000E-03     .1           400              10.000000E+06 
        ROFF    1.000000E+03    1.000000E+06   81.5             9            
         VON     .02            1.6           300               1.6          
        VOFF    -.02            1.2           -40               1.2          


               X_U1.X_S41._S41 
         RON    1            
        ROFF   10.000000E+06 
         VON    1.6          
        VOFF    1.2          


**** 05/17/22 11:59:11 ******* PSpice 17.4.0 (Nov 2018) ******* ID# 0 ********

 ** Profile: "SCHEMATIC1-TransientAnalysis"  [ C:\Users\a0232073\Desktop\GWL_Models\LMH34400\lmh34400-pspicefiles\schematic1\transien


 ****     Current Controlled Switch MODEL PARAMETERS


******************************************************************************




               X_U1.X_W1._W1   X_U1.X_W2._W2   
         RON    1.000000E+06    1.000000E+06 
        ROFF    1.000000E-03    1.000000E-03 
         ION     .35             .35         
        IOFF     .346            .346        


ERROR(ORPSIM-16583): Detected an imported model containing transistors or diodes. For such models, PSpice for TI supports a minimum of one and maximum of three traces. Reduce the number of traces and simulate again.


ABORTING SIMULATION
**** 05/17/22 11:59:11 ******* PSpice 17.4.0 (Nov 2018) ******* ID# 0 ********

 ** Profile: "SCHEMATIC1-TransientAnalysis"  [ C:\Users\a0232073\Desktop\GWL_Models\LMH34400\lmh34400-pspicefiles\schematic1\transien


 ****     JOB STATISTICS SUMMARY


******************************************************************************



Node counts:
  Top level (NUNODS)                =           5
  External (NCNODS)                 =          75
  Total (NUMNOD)                    =          75

Total device count (NUMEL)          =         179
  Capacitors (C)                    =          20
  Diodes (D)                        =           4
  VCVS (E)                          =           9
  CCCS (F)                          =           1
  VCCS (G)                          =          25
  CCVS (H)                          =           3
  Current Sources (I)               =          11
  Inductors (L)                     =           5
  Resistors (R)                     =          70
  VSwitches (S)                     =          13
  Voltage Sources (V)               =          11
  ISwitches (W)                     =           2

Number of subcircuits (X)           =          22

Matrix statistics:
  Matrix size (NSTOP)               =         103
  Initial no. elements (NTTAR)      =         337
  No. elements w/ fillin (NTTBR)    =         337
  No. fillins (IFILL)               =           0
  No. overflows (NTTOV)             =           0
  No. LU operations (IOPS)          =           0
  Percent sparsity (PERSPA)         =      96.823

Analysis statistics:
  No. total time points (NUMTTP)    =           0
  No. rejected time points (NUMRTP) =           0
  No. iterations (NUMNIT)           =           0

Load Threads                        =           1

Runtime statistics:                       Seconds      Iterations
  Matrix load                       =        0.00
  Matrix solution                   =        0.00               1
  Readin                            =        1.25
  General setup                     =        0.00
  CMI setup                     =        0.00
  Setup                             =        0.00
  DC sweep                          =        0.00               0
  Bias point                        =        0.00               0
  AC and noise                      =        0.00               0
  Total transient analysis          =        0.00
  Output                            =        0.00
  Overhead                          =         .05
  License check-out time            =       16.42
  Total job time (using Solver 1)   =        1.25
