
**** 01/11/25 00:19:24 **** PSpice 23.1.0 (30 January 2024) *** ID# 0 ********

 ** Profile: "AC-Trans"  [ E:\Onedrive\Universidad\UTN\Materias\6\proyecto_final\Kicad\vlc_hardware\vlc_hardware\Transmitter\FCA\Simu


 ****     CIRCUIT DESCRIPTION


******************************************************************************




** Creating circuit file "Trans.cir" 
** WARNING: THIS AUTOMATICALLY GENERATED FILE MAY BE OVERWRITTEN BY SUBSEQUENT SIMULATIONS

*Libraries: 
* Profile Libraries :
* Local Libraries :
.LIB "../../../infineon-rftransistor-spice.lib-sm-v02_10-en.lib" 
.LIB "../../../OPA2675.lib" 
* From [PSPICE NETLIST] section of C:\cds_spb_home\cdssetup\OrCAD_PSpiceTIPSpice_Install\23.1.0\PSpice.ini file:
.lib "nom_pspti.lib" 
.lib "nom.lib" 

*Analysis directives: 
.TRAN  0 1us 0 0.001us 
.OPTIONS ADVCONV
.OPTIONS FILEMODELSEARCH
.PROBE64 V(alias(*)) I(alias(*)) W(alias(*)) D(alias(*)) NOISE(alias(*)) 
.INC "..\AC.net" 



**** INCLUDING AC.net ****
* source OPA2675
V_V1         VCC 0 10Vdc
V_V3         N00615 0  AC 1
+SIN 0 0.1 40E6 0 0 0
R_FCA_R3         0 FCA_N03967  50 TC=0,0 
X_FCA_U1         FCA_N03866 FCA_N00597 FCA_N00670 VCC 0 0 0 OPA2675
R_FCA_R2         0 FCA_N03866  10k TC=0,0 
R_FCA_R1         FCA_N03866 VCC  10k TC=0,0 
C_FCA_C4         FCA_N04390 0  {C_block}  TC=0,0 
R_FCA_Rg         FCA_N04390 FCA_N00597  133 TC=0,0 
R_FCA_Rf         FCA_N00597 FCA_N00670  402 TC=0,0 
C_FCA_C2         FCA_N03967 FCA_N03866  {C_block}  TC=0,0 
C_FCA_C3         FCA_N04274 FCA_N00670  {C_block}  TC=0,0 
R_FCA_R4         VFCA FCA_N04274  1 TC=0,0 
C_FCA_C1         FCA_N03866 V_RXAMP  {C_block}  TC=0,0 
V_V2         N01950 0 8V
R_R2         VSOURCE N00615  50 TC=0,0 
L_PRE_L2         0 PRE_N00368  150nH  
R_PRE_R2         PRE_N00087 V_FILTER  50 TC=0,0 
L_PRE_L1         PRE_N00290 V_FILTER  150nH  
R_PRE_R4         VSOURCE V_FILTER  825 TC=0,0 
R_PRE_R1         VSOURCE PRE_N00087  50 TC=0,0 
C_PRE_C2         0 PRE_N00368  62pF  TC=0,0 
R_PRE_R3         PRE_N00368 PRE_N00087  3 TC=0,0 
C_PRE_C1         VSOURCE PRE_N00290  62pF  TC=0,0 
L_LED_L1         LED_N00108 LED_N00200  0.99n  
R_LED_R2         0 VLED  1k TC=0,0 
C_LED_C2         0 LED_N00200  0.19n  TC=0,0 
R_LED_R3         VLED LED_N00200  0.54 TC=0,0 
C_LED_C1         0 VLED  130n  TC=0,0 
R_LED_R1         VFCA LED_N00108  1.35 TC=0,0 
R_AMP_PRE_R4         AMP_PRE_N00236 N01950  47 TC=0,0 
L_AMP_PRE_L1         AMP_PRE_N00270 AMP_PRE_N01130  22n  
R_AMP_PRE_R1         AMP_PRE_N00121 AMP_PRE_N000900  910 TC=0,0 
X_AMP_PRE_U1         AMP_PRE_N00270 AMP_PRE_N00121 0 BFR740L3RH
R_AMP_PRE_R5         AMP_PRE_N01130 V_RXAMP  0.4 TC=0,0 
C_AMP_PRE_C5         0 AMP_PRE_N00861  4.7p  TC=0,0 
C_AMP_PRE_C4         0 AMP_PRE_N00270  8.2pF  TC=0,0 
R_AMP_PRE_R3         AMP_PRE_N00270 AMP_PRE_N00236  160 TC=0,0 
C_AMP_PRE_C3         AMP_PRE_N00236 0  220nF  TC=0,0 
C_AMP_PRE_C2         AMP_PRE_N000900 AMP_PRE_N00270  220n  TC=0,0 
C_AMP_PRE_C1         AMP_PRE_N00121 V_FILTER  1u  TC=0,0 
R_AMP_PRE_R2         AMP_PRE_N00121 AMP_PRE_N00236  39k TC=0,0 
L_AMP_PRE_L2         AMP_PRE_N00861 V_RXAMP  9.1n  
.PARAM  c_block=.1uf

**** RESUMING Trans.cir ****
.END

**** 01/11/25 00:19:24 **** PSpice 23.1.0 (30 January 2024) *** ID# 0 ********

 ** Profile: "AC-Trans"  [ E:\Onedrive\Universidad\UTN\Materias\6\proyecto_final\Kicad\vlc_hardware\vlc_hardware\Transmitter\FCA\Simu


 ****     Diode MODEL PARAMETERS


******************************************************************************




               X_FCA_U1.X_U1.DVN 
          IS  100.000000E-18 
          KF  100.000000E-12 


               X_FCA_U1.X_U3.DVNF 
          IS  100.000000E-18 
          KF  100.000000E-12 


               X_FCA_U1.X_U4.DVNF 
          IS  100.000000E-18 
          KF  100.000000E-12 


**** 01/11/25 00:19:24 **** PSpice 23.1.0 (30 January 2024) *** ID# 0 ********

 ** Profile: "AC-Trans"  [ E:\Onedrive\Universidad\UTN\Materias\6\proyecto_final\Kicad\vlc_hardware\vlc_hardware\Transmitter\FCA\Simu


 ****     BJT MODEL PARAMETERS


******************************************************************************




               X_AMP_PRE_U1.M_BFR740L3RH 
               NPN             
  T_Measured   25            
   T_Current   27            
       LEVEL    1            
          IS    1.362000E-15 
          EG    1.034        
          BF  632            
          NF    1.027        
         VAF  120            
         IKF     .09421      
         ISE  140.000000E-15 
          NE    2.6          
          BR  100            
          NR    1            
         VAR    1.7          
         IKR    3.500000E-03 
         ISC    5.000000E-15 
         ISS    0            
          RB    2            
         RBM     .6          
         IRB  889.000000E-06 
          RE     .1019       
          RC    5.14         
         CJE  314.000000E-15 
         VJE     .8119       
         MJE     .1431       
         CJC   84.190000E-15 
         VJC     .4412       
         MJC     .3364       
        XCJC     .6466       
         CJS  222.900000E-15 
         VJS     .4393       
         MJS     .2684       
          FC     .8156       
          TF    1.667000E-12 
         XTF  200            
         VTF     .3493       
         ITF     .3          
         PTF    1            
          TR   27.860000E-09 
         XTB   -2.482        
         XTI     .808        
          KF   25.600000E-12 
          AF    1.798        
          CN    2.42         
           D     .87         


**** 01/11/25 00:19:24 **** PSpice 23.1.0 (30 January 2024) *** ID# 0 ********

 ** Profile: "AC-Trans"  [ E:\Onedrive\Universidad\UTN\Materias\6\proyecto_final\Kicad\vlc_hardware\vlc_hardware\Transmitter\FCA\Simu


 ****     Resistor MODEL PARAMETERS


******************************************************************************




               X_FCA_U1.R_NOISELESS 
  T_Measured   27            
   T_Current -273.15         
           R    1            


**** 01/11/25 00:19:24 **** PSpice 23.1.0 (30 January 2024) *** ID# 0 ********

 ** Profile: "AC-Trans"  [ E:\Onedrive\Universidad\UTN\Materias\6\proyecto_final\Kicad\vlc_hardware\vlc_hardware\Transmitter\FCA\Simu


 ****     Voltage Controlled Switch MODEL PARAMETERS


******************************************************************************




               X_FCA_U1.X_S11._S11 
         RON    1.000000E-03 
        ROFF    1            
         VON    1.3          
        VOFF    1            


               X_FCA_U1.X_S12._S12 
         RON    1.000000E-03 
        ROFF    1            
         VON    1.3          
        VOFF    1            


               X_FCA_U1.X_S29._S29 
         RON    1.000000E+09 
        ROFF    1            
         VON    2            
        VOFF     .8          


               X_FCA_U1.X_S30._S30 
         RON    1            
        ROFF    1.000000E-06 
         VON  100.000000E-06 
        VOFF    0            


               X_FCA_U1.X_S31._S31 
         RON    1            
        ROFF    1.000000E-06 
         VON  100.000000E-06 
        VOFF    0            


               X_FCA_U1.X_S36._S36 
         RON    1.000000E-03 
        ROFF    2.000000E+03 
         VON     .05         
        VOFF    -.05         


               X_FCA_U1.X_S37._S37 
         RON    1.000000E-03 
        ROFF    2.000000E+03 
         VON     .05         
        VOFF    -.05         


               X_FCA_U1.X_S38._S38 
         RON    1.000000E+09 
        ROFF    1.000000E-03 
         VON    2            
        VOFF     .8          


               X_FCA_U1.X_S39._S39 
         RON     .2          
        ROFF    1.2          
         VON     .01         
        VOFF    -.01         


               X_FCA_U1.X_S40._S40 
         RON     .2          
        ROFF    1.2          
         VON     .01         
        VOFF    -.01         


               X_FCA_U1.X_S41._S41 
         RON    1.000000E-03 
        ROFF    2.000000E+03 
         VON     .1          
        VOFF    -.1          


               X_FCA_U1.X_S42._S42 
         RON    1.000000E-03 
        ROFF    2.000000E+03 
         VON     .1          
        VOFF    -.1          


**** 01/11/25 00:19:24 **** PSpice 23.1.0 (30 January 2024) *** ID# 0 ********

 ** Profile: "AC-Trans"  [ E:\Onedrive\Universidad\UTN\Materias\6\proyecto_final\Kicad\vlc_hardware\vlc_hardware\Transmitter\FCA\Simu


 ****     Current Controlled Switch MODEL PARAMETERS


******************************************************************************




               X_FCA_U1.X_W1._W1 
         RON    1.000000E+06 
        ROFF    1.000000E-03 
         ION    5            
        IOFF    4.7          


               X_FCA_U1.X_W2._W2 
         RON    1.000000E+06 
        ROFF    1.000000E-03 
         ION    5            
        IOFF    4.7          


**** 01/11/25 00:19:24 **** PSpice 23.1.0 (30 January 2024) *** ID# 0 ********

 ** Profile: "AC-Trans"  [ E:\Onedrive\Universidad\UTN\Materias\6\proyecto_final\Kicad\vlc_hardware\vlc_hardware\Transmitter\FCA\Simu


 ****     INITIAL TRANSIENT SOLUTION       TEMPERATURE =   27.000 DEG C


******************************************************************************



 NODE   VOLTAGE     NODE   VOLTAGE     NODE   VOLTAGE     NODE   VOLTAGE


(  VCC)   10.0000  ( VFCA)    0.0000  ( VLED)    0.0000  (N00615)    0.0000     

(N01950)    8.0000 (VSOURCE)    0.0000                   (V_RXAMP)    1.9106    

(V_FILTER)    0.0000                  (FCA_N00597)    5.0286                    

(FCA_N00670)    5.0262                (FCA_N03866)    5.0250                    

(FCA_N03967)    0.0000                (FCA_N04274)    0.0000                    

(FCA_N04390)    5.0286                (LED_N00108)    0.0000                    

(LED_N00200)    0.0000                (PRE_N00087)    0.0000                    

(PRE_N00290)    0.0000                (PRE_N00368)    0.0000                    

(X_FCA_U1.MID)    5.0000              (X_FCA_U1.AOL2)    5.0262                 

(X_FCA_U1.AOL3)    5.0262             (X_FCA_U1.CMRR)    5.0000                 

(X_FCA_U1.CREF)   27.0000             (X_FCA_U1.IMON)-6.032E-06                 

(X_FCA_U1.SLEW)    5.0262             (X_FCA_U1.ZOUT)    5.0262                 

(AMP_PRE_N00121)     .8521            (AMP_PRE_N00236)    6.6120                

(AMP_PRE_N00270)    1.9106            (AMP_PRE_N00861)    1.9106                

(AMP_PRE_N01130)    1.9106            (X_AMP_PRE_U1.4)     .0056                

(X_FCA_U1.PSRRM)    4.9917            (X_FCA_U1.PSRRP)    5.0058                

(X_FCA_U1.TEMPC)   28.0000            (X_FCA_U1.VCC_B)    9.9950                

(X_FCA_U1.VEE_B)     .0050            (X_FCA_U1.ZOUTL)    5.0262                

(AMP_PRE_N000900)     .8521           (X_AMP_PRE_U1.10)    1.9106               

(X_AMP_PRE_U1.11)    1.9106           (X_AMP_PRE_U1.20)     .8521               

(X_AMP_PRE_U1.22)     .8521           (X_AMP_PRE_U1.30) 130.7E-18               

(X_AMP_PRE_U1.33)     .0103           (X_AMP_PRE_U1.44)     .0056               

(X_FCA_U1.AOLOUT)    5.0262           (X_FCA_U1.PREMID)    5.0000               

(X_FCA_U1.X_U1.3)    0.0000           (X_FCA_U1.X_U1.4)    0.0000               

(X_FCA_U1.X_U1.5)    0.0000           (X_FCA_U1.X_U1.6)    0.0000               

(X_FCA_U1.X_U1.7)     .8338           (X_FCA_U1.X_U1.8)     .8338               

(X_FCA_U1.X_U3.3)    0.0000           (X_FCA_U1.X_U3.4)    0.0000               

(X_FCA_U1.X_U3.5)    0.0000           (X_FCA_U1.X_U3.6)    0.0000               

(X_FCA_U1.X_U3.7)     .8338           (X_FCA_U1.X_U3.8)     .8338               

(X_FCA_U1.X_U4.3)    0.0000           (X_FCA_U1.X_U4.4)    0.0000               

(X_FCA_U1.X_U4.5)    0.0000           (X_FCA_U1.X_U4.6)    0.0000               

(X_FCA_U1.X_U4.7)     .8338           (X_FCA_U1.X_U4.8)     .8338               

(X_AMP_PRE_U1.111)    1.9106          (X_AMP_PRE_U1.222)     .8521              

(X_FCA_U1.N460322)-6.032E-12          (X_FCA_U1.N461004) 6.971E-12              

(X_FCA_U1.N462608)    5.0026          (X_FCA_U1.N463406)    5.0145              

(X_FCA_U1.N463410)    5.0145          (X_FCA_U1.N463418)    5.0286              

(X_FCA_U1.N465370)     .0138          (X_FCA_U1.N465486) 16.54E-06              

(X_FCA_U1.N505726)  -16.3170          (X_FCA_U1.N516672)    5.0262              

(X_FCA_U1.N938010)    5.0145          (X_FCA_U1.N940824)    7.5950              

(X_FCA_U1.N940832)    2.4050          (X_FCA_U1.N956734)    5.0262              

(X_FCA_U1.N956866)    5.0262          (X_FCA_U1.N956884)    5.0262              

(X_FCA_U1.N956892)    5.0262          (X_FCA_U1.N957030)    5.0000              

(X_FCA_U1.N957036)    5.0000          (X_FCA_U1.N957042)    5.0262              

(X_FCA_U1.N957214)    5.0262          (X_FCA_U1.N957264)    5.0262              

(X_FCA_U1.N959235)    5.0286          (X_FCA_U1.N973734)    5.0262              

(X_FCA_U1.N973764)    5.0262          (X_FCA_U1.N973790)    5.0262              

(X_FCA_U1.VCC_CLP)    8.8950          (X_FCA_U1.VEE_CLP)    1.1050              

(X_FCA_U1.N1346042)   19.9700         (X_FCA_U1.N1410320)    5.0262             

(X_FCA_U1.N1410360)    5.0262         (X_FCA_U1.N1415236)    5.0262         




    VOLTAGE SOURCE CURRENTS
    NAME         CURRENT

    V_V1        -1.703E-02
    V_V3         0.000E+00
    V_V2        -2.953E-02
    X_FCA_U1.V_V14   0.000E+00
    X_FCA_U1.V_VCMH   0.000E+00
    X_FCA_U1.V_VCML   0.000E+00
    X_FCA_U1.X_H4.VH_H4  -6.032E-06
    X_FCA_U1.X_W1.VW_W1   1.466E-16
    X_FCA_U1.X_W2.VW_W2   0.000E+00

    TOTAL POWER DISSIPATION   4.07E-01  WATTS


ERROR(ORPSIM-15138): Convergence problem in Transient Analysis at Time =  67.28E-09.
         Time step =  723.5E-21, minimum allowable step size =  1.000E-18

  These voltages failed to converge:

    V(FCA_N00670)             =     7.845V  \     7.830V
    V(FCA_N04274)             =     2.848V  \     2.833V
    V(VFCA)                   =     1.878V  \     1.864V
    V(VSOURCE)                =   -46.65mV  \   -46.72mV
    V(PRE_N00087)             =   -43.59mV  \   -43.66mV
    V(V_FILTER)               =   -42.09mV  \   -43.31mV
    V(PRE_N00290)             =   -33.87mV  \   -33.94mV
    V(LED_N00108)             =   569.80mV  \   555.02mV
    V(AMP_PRE_N00121)         =   810.02mV  \   808.81mV
    V(X_FCA_U1.N957042)       =   -18.35KV  \    2.454KV
    V(X_FCA_U1.AOL3)          =   -18.35KV  \    2.454KV
    V(X_FCA_U1.N463406)       =     5.663V  \     5.680V
    V(X_FCA_U1.N957036)       =   -18.36KV  \    2.450KV
    V(X_FCA_U1.ZOUT)          =     7.846V  \     7.831V
    V(X_AMP_PRE_U1.22)        =   807.75mV  \   809.05mV
    V(X_AMP_PRE_U1.33)        =    2.588mV  \    3.880mV
    V(X_AMP_PRE_U1.222)       =   807.75mV  \   809.05mV
    V(X_AMP_PRE_U1.20)        =   807.78mV  \   809.07mV
    V(X_AMP_PRE_U1.30)        =   -1.313mV  \   -20.54uV
    V(X_AMP_PRE_U1.4)         =   804.62uV  \    2.097mV
    V(X_AMP_PRE_U1.44)        =   810.61uV  \    2.103mV
    V(X_FCA_U1.N1415236)      =     7.845V  \     7.830V
    V(X_FCA_U1.N938010)       =     5.663V  \     5.680V

  These supply currents failed to converge:

    I(X_FCA_U1.E_E9)          =   220.90uA  \   152.66uA
    I(X_FCA_U1.X_U1.E3)       =   -10.39uA  \   160.10nA
    I(X_FCA_U1.X_U6.E1)       =    10.39uA  \  -160.10nA
    I(V_V3)                   =   931.82uA  \   930.44uA
    I(X_FCA_U1.X_W1.VW_W1)    =  -185.36mA  \  -129.37mA
    I(X_FCA_U1.X_W2.VW_W2)    =  -185.36mA  \  -129.37mA

  These devices failed to converge:
    X_AMP_PRE_U1.Q1 



  Last node voltages tried were:

 NODE   VOLTAGE     NODE   VOLTAGE     NODE   VOLTAGE     NODE   VOLTAGE


(  VCC)   10.0000  ( VFCA)    1.8784  ( VLED)    -.0229  (N00615)    -.0932     

(N01950)    8.0000 (VSOURCE)    -.0467                   (V_RXAMP)    2.5727    

(V_FILTER)    -.0421                  (FCA_N00597)    5.7084                    

(FCA_N00670)    7.8450                (FCA_N03866)    5.6875                    

(FCA_N03967)     .6629                (FCA_N04274)    2.8477                    

(FCA_N04390)    5.0285                (LED_N00108)     .5698                    

(LED_N00200)     .4946                (PRE_N00087)    -.0436                    

(PRE_N00290)    -.0339                (PRE_N00368)    -.0435                    

(X_FCA_U1.MID)    5.0000              (X_FCA_U1.AOL2)    9.1160                 

(X_FCA_U1.AOL3)-18.35E+03             (X_FCA_U1.CMRR)    5.0109                 

(X_FCA_U1.CREF)   27.0000             (X_FCA_U1.IMON)     .9746                 

(X_FCA_U1.SLEW)    9.1160             (X_FCA_U1.ZOUT)    7.8460                 

(AMP_PRE_N00121)     .8100            (AMP_PRE_N00236)    6.6120                

(AMP_PRE_N00270)    2.5732            (AMP_PRE_N00861)    2.5741                

(AMP_PRE_N01130)    2.5781            (X_AMP_PRE_U1.4) 804.6E-06                

(X_FCA_U1.PSRRM)    4.9917            (X_FCA_U1.PSRRP)    5.0058                

(X_FCA_U1.TEMPC)   28.0000            (X_FCA_U1.VCC_B)    9.9950                

(X_FCA_U1.VEE_B)     .0050            (X_FCA_U1.ZOUTL)    8.0999                

(AMP_PRE_N000900)    1.5147           (X_AMP_PRE_U1.10)    2.5718               

(X_AMP_PRE_U1.11)    2.5716           (X_AMP_PRE_U1.20)     .8078               

(X_AMP_PRE_U1.22)     .8078           (X_AMP_PRE_U1.30)    -.0013               

(X_AMP_PRE_U1.33)     .0026           (X_AMP_PRE_U1.44) 810.6E-06               

(X_FCA_U1.AOLOUT)    9.1181           (X_FCA_U1.PREMID)    5.0000               

(X_FCA_U1.X_U1.3)    0.0000           (X_FCA_U1.X_U1.4)    0.0000               

(X_FCA_U1.X_U1.5)    0.0000           (X_FCA_U1.X_U1.6)    0.0000               

(X_FCA_U1.X_U1.7)     .8338           (X_FCA_U1.X_U1.8)     .8338               

(X_FCA_U1.X_U3.3)    0.0000           (X_FCA_U1.X_U3.4)    0.0000               

(X_FCA_U1.X_U3.5)    0.0000           (X_FCA_U1.X_U3.6)    0.0000               

(X_FCA_U1.X_U3.7)     .8338           (X_FCA_U1.X_U3.8)     .8338               

(X_FCA_U1.X_U4.3)    0.0000           (X_FCA_U1.X_U4.4)    0.0000               

(X_FCA_U1.X_U4.5)    0.0000           (X_FCA_U1.X_U4.6)    0.0000               

(X_FCA_U1.X_U4.7)     .8338           (X_FCA_U1.X_U4.8)     .8338               

(X_AMP_PRE_U1.111)    2.5717          (X_AMP_PRE_U1.222)     .8078              

(X_FCA_U1.N460322)     .9746          (X_FCA_U1.N461004)-974.6E-09              

(X_FCA_U1.N462608)    5.0106          (X_FCA_U1.N463406)    5.6625              

(X_FCA_U1.N463410)    5.6876          (X_FCA_U1.N463418)    5.7018              

(X_FCA_U1.N465370)     .0138          (X_FCA_U1.N465486) 16.54E-06              

(X_FCA_U1.N505726)  -16.3170          (X_FCA_U1.N516672)    9.1156              

(X_FCA_U1.N938010)    5.6625          (X_FCA_U1.N940824)    7.5950              

(X_FCA_U1.N940832)    2.4050          (X_FCA_U1.N956734)    9.1012              

(X_FCA_U1.N956866)    9.1051          (X_FCA_U1.N956884)    9.1051              

(X_FCA_U1.N956892)    9.1046          (X_FCA_U1.N957030)    4.9965              

(X_FCA_U1.N957036)-18.36E+03          (X_FCA_U1.N957042)-18.35E+03              

(X_FCA_U1.N957214)    9.0975          (X_FCA_U1.N957264)    9.0983              

(X_FCA_U1.N959235)    5.7018          (X_FCA_U1.N973734)    9.1156              

(X_FCA_U1.N973764)    9.1160          (X_FCA_U1.N973790)    9.1158              

(X_FCA_U1.VCC_CLP)    7.9204          (X_FCA_U1.VEE_CLP)    -.8442              

(X_FCA_U1.N1346042)   19.9700         (X_FCA_U1.N1410320)    9.1201             

(X_FCA_U1.N1410360)    9.1181         (X_FCA_U1.N1415236)    7.8450         


**** Interrupt ****
**** Param: RELTOL = 0.001
**** Param: ABSTOL = 1e-12
**** Param: VNTOL = 1e-06
**** Param: GMIN = 1e-12
**** Param: TSTOP = 1e-06
**** Param: TMAX = 1e-09
**** Param: ITL1 = 150
**** Param: ITL2 = 20
**** Param: ITL4 = 100
**** Param: AutoConverge = 0
**** Param: AutoConverge.ITL1 = 1000
**** Param: AutoConverge.ITL2 = 1000
**** Param: AutoConverge.ITL4 = 1000
**** Param: AutoConverge.RELTOL = 0.05
**** Param: AutoConverge.ABSTOL = 0.001
**** Param: AutoConverge.VNTOL = 0.001
**** Param: AutoConverge.PIVTOL = 1e-10
**** Param: ADVCONV = 1
**** Param: Current_Simulation = 3
**** Param: METHOD = 0
**** Param: TRTOL = 7
**** Param: STEPGMIN = 0
**** Param: GMINSTEPS = 0
**** Param: ITL6 = 0
**** Param: NOSTEPDEP = 0
**** Param: PTRANSTEP = 0
**** Param: GMINSRC = 0
**** Param: PSEUDOTRAN = 0
**** Param: NOSTEPSRC = 0

ERROR(ORPSIM-15138): Convergence problem in Transient Analysis at Time =  67.28E-09.
         Time step =  723.5E-21, minimum allowable step size =  1.000E-18

  These voltages failed to converge:

    V(FCA_N00670)             =     7.845V  \     7.830V
    V(FCA_N04274)             =     2.848V  \     2.833V
    V(VFCA)                   =     1.878V  \     1.864V
    V(VSOURCE)                =   -46.65mV  \   -46.72mV
    V(PRE_N00087)             =   -43.59mV  \   -43.66mV
    V(V_FILTER)               =   -42.09mV  \   -43.31mV
    V(PRE_N00290)             =   -33.87mV  \   -33.94mV
    V(LED_N00108)             =   569.80mV  \   555.02mV
    V(AMP_PRE_N00121)         =   810.02mV  \   808.81mV
    V(X_FCA_U1.N957042)       =   -18.35KV  \    2.454KV
    V(X_FCA_U1.AOL3)          =   -18.35KV  \    2.454KV
    V(X_FCA_U1.N463406)       =     5.663V  \     5.680V
    V(X_FCA_U1.N957036)       =   -18.36KV  \    2.450KV
    V(X_FCA_U1.ZOUT)          =     7.846V  \     7.831V
    V(X_AMP_PRE_U1.22)        =   807.75mV  \   809.05mV
    V(X_AMP_PRE_U1.33)        =    2.588mV  \    3.880mV
    V(X_AMP_PRE_U1.222)       =   807.75mV  \   809.05mV
    V(X_AMP_PRE_U1.20)        =   807.78mV  \   809.07mV
    V(X_AMP_PRE_U1.30)        =   -1.313mV  \   -20.54uV
    V(X_AMP_PRE_U1.4)         =   804.62uV  \    2.097mV
    V(X_AMP_PRE_U1.44)        =   810.61uV  \    2.103mV
    V(X_FCA_U1.N1415236)      =     7.845V  \     7.830V
    V(X_FCA_U1.N938010)       =     5.663V  \     5.680V

  These supply currents failed to converge:

    I(X_FCA_U1.E_E9)          =   220.90uA  \   152.66uA
    I(X_FCA_U1.X_U1.E3)       =   -10.39uA  \   160.10nA
    I(X_FCA_U1.X_U6.E1)       =    10.39uA  \  -160.10nA
    I(V_V3)                   =   931.82uA  \   930.44uA
    I(X_FCA_U1.X_W1.VW_W1)    =  -185.36mA  \  -129.37mA
    I(X_FCA_U1.X_W2.VW_W2)    =  -185.36mA  \  -129.37mA

  These devices failed to converge:
    X_AMP_PRE_U1.Q1 



  Last node voltages tried were:

 NODE   VOLTAGE     NODE   VOLTAGE     NODE   VOLTAGE     NODE   VOLTAGE


(  VCC)   10.0000  ( VFCA)    1.8784  ( VLED)    -.0229  (N00615)    -.0932     

(N01950)    8.0000 (VSOURCE)    -.0467                   (V_RXAMP)    2.5727    

(V_FILTER)    -.0421                  (FCA_N00597)    5.7084                    

(FCA_N00670)    7.8450                (FCA_N03866)    5.6875                    

(FCA_N03967)     .6629                (FCA_N04274)    2.8477                    

(FCA_N04390)    5.0285                (LED_N00108)     .5698                    

(LED_N00200)     .4946                (PRE_N00087)    -.0436                    

(PRE_N00290)    -.0339                (PRE_N00368)    -.0435                    

(X_FCA_U1.MID)    5.0000              (X_FCA_U1.AOL2)    9.1160                 

(X_FCA_U1.AOL3)-18.35E+03             (X_FCA_U1.CMRR)    5.0109                 

(X_FCA_U1.CREF)   27.0000             (X_FCA_U1.IMON)     .9746                 

(X_FCA_U1.SLEW)    9.1160             (X_FCA_U1.ZOUT)    7.8460                 

(AMP_PRE_N00121)     .8100            (AMP_PRE_N00236)    6.6120                

(AMP_PRE_N00270)    2.5732            (AMP_PRE_N00861)    2.5741                

(AMP_PRE_N01130)    2.5781            (X_AMP_PRE_U1.4) 804.6E-06                

(X_FCA_U1.PSRRM)    4.9917            (X_FCA_U1.PSRRP)    5.0058                

(X_FCA_U1.TEMPC)   28.0000            (X_FCA_U1.VCC_B)    9.9950                

(X_FCA_U1.VEE_B)     .0050            (X_FCA_U1.ZOUTL)    8.0999                

(AMP_PRE_N000900)    1.5147           (X_AMP_PRE_U1.10)    2.5718               

(X_AMP_PRE_U1.11)    2.5716           (X_AMP_PRE_U1.20)     .8078               

(X_AMP_PRE_U1.22)     .8078           (X_AMP_PRE_U1.30)    -.0013               

(X_AMP_PRE_U1.33)     .0026           (X_AMP_PRE_U1.44) 810.6E-06               

(X_FCA_U1.AOLOUT)    9.1181           (X_FCA_U1.PREMID)    5.0000               

(X_FCA_U1.X_U1.3)    0.0000           (X_FCA_U1.X_U1.4)    0.0000               

(X_FCA_U1.X_U1.5)    0.0000           (X_FCA_U1.X_U1.6)    0.0000               

(X_FCA_U1.X_U1.7)     .8338           (X_FCA_U1.X_U1.8)     .8338               

(X_FCA_U1.X_U3.3)    0.0000           (X_FCA_U1.X_U3.4)    0.0000               

(X_FCA_U1.X_U3.5)    0.0000           (X_FCA_U1.X_U3.6)    0.0000               

(X_FCA_U1.X_U3.7)     .8338           (X_FCA_U1.X_U3.8)     .8338               

(X_FCA_U1.X_U4.3)    0.0000           (X_FCA_U1.X_U4.4)    0.0000               

(X_FCA_U1.X_U4.5)    0.0000           (X_FCA_U1.X_U4.6)    0.0000               

(X_FCA_U1.X_U4.7)     .8338           (X_FCA_U1.X_U4.8)     .8338               

(X_AMP_PRE_U1.111)    2.5717          (X_AMP_PRE_U1.222)     .8078              

(X_FCA_U1.N460322)     .9746          (X_FCA_U1.N461004)-974.6E-09              

(X_FCA_U1.N462608)    5.0106          (X_FCA_U1.N463406)    5.6625              

(X_FCA_U1.N463410)    5.6876          (X_FCA_U1.N463418)    5.7018              

(X_FCA_U1.N465370)     .0138          (X_FCA_U1.N465486) 16.54E-06              

(X_FCA_U1.N505726)  -16.3170          (X_FCA_U1.N516672)    9.1156              

(X_FCA_U1.N938010)    5.6625          (X_FCA_U1.N940824)    7.5950              

(X_FCA_U1.N940832)    2.4050          (X_FCA_U1.N956734)    9.1012              

(X_FCA_U1.N956866)    9.1051          (X_FCA_U1.N956884)    9.1051              

(X_FCA_U1.N956892)    9.1046          (X_FCA_U1.N957030)    4.9965              

(X_FCA_U1.N957036)-18.36E+03          (X_FCA_U1.N957042)-18.35E+03              

(X_FCA_U1.N957214)    9.0975          (X_FCA_U1.N957264)    9.0983              

(X_FCA_U1.N959235)    5.7018          (X_FCA_U1.N973734)    9.1156              

(X_FCA_U1.N973764)    9.1160          (X_FCA_U1.N973790)    9.1158              

(X_FCA_U1.VCC_CLP)    7.9204          (X_FCA_U1.VEE_CLP)    -.8442              

(X_FCA_U1.N1346042)   19.9700         (X_FCA_U1.N1410320)    9.1201             

(X_FCA_U1.N1410360)    9.1181         (X_FCA_U1.N1415236)    7.8450         


**** Interrupt ****
