
**** 01/04/25 13:26:31 **** PSpice 23.1.0 (30 January 2024) *** ID# 0 ********

 ** Profile: "SCHEMATIC1-Lumicom_Trans"  [ e:\onedrive\universidad\utn\materias\6\proyecto_final\simulaciones\pspice\lumicom_trans_v2


 ****     CIRCUIT DESCRIPTION


******************************************************************************




** Creating circuit file "Lumicom_Trans.cir" 
** WARNING: THIS AUTOMATICALLY GENERATED FILE MAY BE OVERWRITTEN BY SUBSEQUENT SIMULATIONS

*Libraries: 
* Profile Libraries :
* Local Libraries :
* From [PSPICE NETLIST] section of C:\cds_spb_home\cdssetup\OrCAD_PSpiceTIPSpice_Install\23.1.0\PSpice.ini file:
.lib "nom_pspti.lib" 
.lib "nom.lib" 

*Analysis directives: 
.AC DEC 100 1k 10G
.OPTIONS ADVCONV
.OPTIONS FILEMODELSEARCH
.PROBE64 V(alias(*)) I(alias(*)) W(alias(*)) D(alias(*)) NOISE(alias(*)) 
.INC "..\SCHEMATIC1.net" 



**** INCLUDING SCHEMATIC1.net ****
* source LUMICOM_TRANS
.EXTERNAL OUTPUT Vee
.EXTERNAL OUTPUT Vcc
X_U1         IN N23750 OUT VCC VEE 0 0 OPA2675
V_V2         N23684 0  AC 1
+SIN 0 0.4 50e6 0 0 0
R_R2         N40363 0  120 TC=0,0 
V_V3         VEE 0 0
V_V4         VCC 0 5
C_C1         N37286 IN  1u  TC=0,0 
R_R3         IN VEE  5k TC=0,0 
R_R4         VCC IN  5k TC=0,0 
C_C2         N25578 N25117  1uF  TC=0,0 
R_R5         OUT N25578  {Rpi} TC=0,0 
R_R1         OUT N23750  390 TC=0,0 
R_R10         N25117 0  4 TC=0,0 
R_R13         N23684 N37286  50 TC=0,0 
C_C4         0 VCC  100n  TC=0,0 
C_C5         N40363 N23750  0.1u  TC=0,0 
C_C6         N40794 IN  1u  TC=0,0 
.PARAM  rpi=0

**** RESUMING Lumicom_Trans.cir ****
.END

INFO(ORPSIM-16573): AC analysis does not support expression evaluation at each frequency. ABM devices with non-linear operations will be evaluated only at bias point.

ERROR(ORPSIM-15141): Less than 2 connections at node N40794.

ERROR(ORPSIM-15142): Node N40794 is floating
