LTspice 24.0.11 for Windows
Circuit: * E:\Onedrive\Universidad\UTN\Materias\6\proyecto_final\Kicad\vlc_hardware\vlc_hardware\Receiver\AMP\simulation\rx_amp.asc
Start Time: Wed Jan  8 21:48:02 2025
Fatal Error: Multiple instances of "Q1"
