LTspice 24.0.11 for Windows
Circuit: * E:\Onedrive\Universidad\UTN\Materias\6\proyecto_final\Kicad\vlc_hardware\vlc_hardware\Transmitter\PRE\simulations\filtro_t.asc
Start Time: Thu Jan  9 11:47:43 2025
solver = Normal
Maximum thread count: 8
tnom = 27
temp = 27
method = modified trap
.OP point found by inspection.
Total elapsed time: 0.152 seconds.

