
**** 01/10/25 20:51:43 **** PSpice 23.1.0 (30 January 2024) *** ID# 0 ********

 ** Profile: "AC-AC"  [ E:\Onedrive\Universidad\UTN\Materias\6\proyecto_final\Kicad\vlc_hardware\vlc_hardware\Transmitter\FCA\Simulat


 ****     CIRCUIT DESCRIPTION


******************************************************************************




** Creating circuit file "AC.cir" 
** WARNING: THIS AUTOMATICALLY GENERATED FILE MAY BE OVERWRITTEN BY SUBSEQUENT SIMULATIONS

*Libraries: 
* Profile Libraries :
* Local Libraries :
.LIB "../../../library/infineon-rftransistor-spice.lib-sm-v02_10-en.lib" 
* From [PSPICE NETLIST] section of C:\cds_spb_home\cdssetup\OrCAD_PSpiceTIPSpice_Install\23.1.0\PSpice.ini file:
.lib "nom_pspti.lib" 
.lib "nom.lib" 

*Analysis directives: 
.AC DEC 100 1k 10G
.OPTIONS ADVCONV
.OPTIONS FILEMODELSEARCH
.PROBE64 V(alias(*)) I(alias(*)) W(alias(*)) D(alias(*)) NOISE(alias(*)) 
.INC "..\AC.net" 



**** INCLUDING AC.net ****
* source LUMICOM_TRANS
V_V4         N24073 0 5
C_C4         0 N24073  100n  TC=0,0 
L_LED_L1         LED_N00174 LED_N00178  0.99n  
C_LED_C2         0 N44720  130n  TC=0,0 
R_LED_R1         N45527 LED_N00174  1.35 TC=0,0 
C_LED_C1         0 LED_N00178  0.19n  TC=0,0 
R_LED_R2         LED_N00178 N44720  0.54 TC=0,0 
R_LED_R3         0 N44720  0.39 TC=0,0 
R_R13         N53093 N50868  50 TC=0,0 
R_PRE_R5         PRE_N00638 PRE_N00291  3 TC=0,0 
C_PRE_C1         PRE_N00199 N46268  62pF  TC=0,0 
L_PRE_L2         0 PRE_N00638  150nH  
R_PRE_R1         N50457 PRE_N00291  50 TC=0,0 
C_PRE_C2         0 PRE_N00638  62pF  TC=0,0 
R_PRE_R4         N50457 N46268  825 TC=0,0 
L_PRE_L1         N50457 PRE_N00199  150nH  
R_PRE_R3         PRE_N00291 N46268  50 TC=0,0 
C_PRE1_C1         PRE1_N00199 N48325  62pF  TC=0,0 
R_PRE1_R5         PRE1_N00638 PRE1_N00291  3 TC=0,0 
R_PRE1_R1         N46268 PRE1_N00291  50 TC=0,0 
L_PRE1_L2         0 PRE1_N00638  150nH  
C_PRE1_C2         0 PRE1_N00638  62pF  TC=0,0 
R_PRE1_R4         N46268 N48325  825 TC=0,0 
L_PRE1_L1         N46268 PRE1_N00199  150nH  
R_PRE1_R3         PRE1_N00291 N48325  50 TC=0,0 
T_T1         N50868 0 N50457 0 Z0=50 TD=0.2ns  
T_T2         N48325 0 N51016 0 Z0=50 TD=0.2ns  
T_T3         N50025 0 N45527 0 Z0=50 TD=0.2ns  
V_V5         N53093 0 DC 0Vdc AC 1Vac 
X_FCA1_U1         FCA1_N47288 FCA1_N47546 FCA1_N47474 N24073 0 0 0 OPA2675
R_FCA1_R5         FCA1_N47474 FCA1_N47490  1 TC=0,0 
R_FCA1_R2         FCA1_N47546 FCA1_N477020  133 TC=0,0 
R_FCA1_R3         FCA1_N47288 0  10k TC=0,0 
C_FCA1_C2         FCA1_N47490 N50025  .1uF  TC=0,0 
C_FCA1_C5         FCA1_N47572 FCA1_N47288  .1u  TC=0,0 
R_FCA1_R14         0 FCA1_N47572  50 TC=0,0 
R_FCA1_R1         FCA1_N47474 FCA1_N47546  402 TC=0,0 
C_FCA1_C6         0 FCA1_N477020  .1uF  TC=0,0 
C_FCA1_C1         N51754 FCA1_N47288  .1u  TC=0,0 
R_FCA1_R4         N24073 FCA1_N47288  10k TC=0,0 
R_R1         N55391 N55485  910 TC=0,0 
C_C6         N55485 N55431  220nF  TC=0,0 
R_R2         N55391 N55297  39k TC=0,0 
R_R5         N55531 N55525  0.4 TC=0,0 
C_C3         0 N55645  4.7pF  TC=0,0 
L_L1         N55645 N55531  9.1n  
R_R3         N55431 N55297  160 TC=0,0 
X_U1         N55431 N55391 0 BFR740L3RH
C_C2         N55531 N51754  1uF  TC=0,0 
R_R4         N55297 N55271  47 TC=0,0 
C_C5         N55297 0  220nF  TC=0,0 
C_C1         N51016 N55391  1uF  TC=0,0 
L_L2         N55525 N55431  22n  
V_V8         N55271 0 3.3
.PARAM  rpi=2

**** RESUMING AC.cir ****
.END

ERROR(ORPSIM-15142): Node N51754 is floating
