
**** 01/10/25 21:12:41 **** PSpice 23.1.0 (30 January 2024) *** ID# 0 ********

 ** Profile: "TRANS-Trans"  [ E:\Onedrive\Universidad\UTN\Materias\6\proyecto_final\Kicad\vlc_hardware\vlc_hardware\Transmitter\FCA\S


 ****     CIRCUIT DESCRIPTION


******************************************************************************




** Creating circuit file "Trans.cir" 
** WARNING: THIS AUTOMATICALLY GENERATED FILE MAY BE OVERWRITTEN BY SUBSEQUENT SIMULATIONS

*Libraries: 
* Profile Libraries :
* Local Libraries :
.LIB "../../../library/infineon-rftransistor-spice.lib-sm-v02_10-en.lib" 
* From [PSPICE NETLIST] section of C:\cds_spb_home\cdssetup\OrCAD_PSpiceTIPSpice_Install\23.1.0\PSpice.ini file:
.lib "nom_pspti.lib" 
.lib "nom.lib" 

*Analysis directives: 
.TRAN  0 1us 0 
.OPTIONS ADVCONV
.OPTIONS FILEMODELSEARCH
.PROBE64 V(alias(*)) I(alias(*)) W(alias(*)) D(alias(*)) NOISE(alias(*)) 
.INC "..\TRANS.net" 



**** INCLUDING TRANS.net ****
* source LUMICOM_TRANS
R_R13         N46541 VSOURCE  50 TC=0,0 
T_T1         VSOURCE 0 N57081 0 Z0=50 TD=0.2ns  
T_T5         VFCA 0 N57107 0 Z0=50 TD=0.2ns  
T_T2         VFILTER 0 N57095 0 Z0=50 TD=0.2ns  
V_V5         N56871 0 5
V_V1         N46541 0  AC 1
+SIN 0 1 50E6 0 0 0
C_filter_C1         filter_N00199 VFILTER  62pF  TC=0,0 
R_filter_R5         filter_N00638 filter_N00291  3 TC=0,0 
R_filter_R1         N57081 filter_N00291  50 TC=0,0 
L_filter_L2         0 filter_N00638  150nH  
C_filter_C2         0 filter_N00638  62pF  TC=0,0 
R_filter_R4         N57081 VFILTER  825 TC=0,0 
L_filter_L1         N57081 filter_N00199  150nH  
R_filter_R3         filter_N00291 VFILTER  50 TC=0,0 
X_fcaamp_U1         fcaamp_N47288 fcaamp_N47546 fcaamp_N47474 N56871 0 0 0
+  OPA2675
R_fcaamp_R5         fcaamp_N47474 fcaamp_N47490  1 TC=0,0 
R_fcaamp_R2         fcaamp_N47546 fcaamp_N477020  133 TC=0,0 
R_fcaamp_R3         fcaamp_N47288 0  10k TC=0,0 
C_fcaamp_C2         fcaamp_N47490 VFCA  .1uF  TC=0,0 
C_fcaamp_C5         fcaamp_N47572 fcaamp_N47288  .1u  TC=0,0 
R_fcaamp_R14         0 fcaamp_N47572  50 TC=0,0 
R_fcaamp_R1         fcaamp_N47474 fcaamp_N47546  402 TC=0,0 
C_fcaamp_C6         0 fcaamp_N477020  .1uF  TC=0,0 
C_fcaamp_C1         N57095 fcaamp_N47288  .1u  TC=0,0 
R_fcaamp_R4         N56871 fcaamp_N47288  10k TC=0,0 
R_led_R2         led_N00178 VLED  0.54 TC=0,0 
R_led_R1         N57107 led_N00174  1.35 TC=0,0 
C_led_C2         0 VLED  130n  TC=0,0 
C_led_C1         0 led_N00178  0.19n  TC=0,0 
R_led_R3         0 VLED  0.39 TC=0,0 
L_led_L1         led_N00174 led_N00178  0.99n  
.PARAM  rpi=2

**** RESUMING Trans.cir ****
.END

**** 01/10/25 21:12:41 **** PSpice 23.1.0 (30 January 2024) *** ID# 0 ********

 ** Profile: "TRANS-Trans"  [ E:\Onedrive\Universidad\UTN\Materias\6\proyecto_final\Kicad\vlc_hardware\vlc_hardware\Transmitter\FCA\S


 ****     Diode MODEL PARAMETERS


******************************************************************************




               X_fcaamp_U1.X_U1.DVN 
          IS  100.000000E-18 
          KF  100.000000E-12 


               X_fcaamp_U1.X_U3.DVNF 
          IS  100.000000E-18 
          KF  100.000000E-12 


               X_fcaamp_U1.X_U4.DVNF 
          IS  100.000000E-18 
          KF  100.000000E-12 


**** 01/10/25 21:12:41 **** PSpice 23.1.0 (30 January 2024) *** ID# 0 ********

 ** Profile: "TRANS-Trans"  [ E:\Onedrive\Universidad\UTN\Materias\6\proyecto_final\Kicad\vlc_hardware\vlc_hardware\Transmitter\FCA\S


 ****     Resistor MODEL PARAMETERS


******************************************************************************




               X_fcaamp_U1.R_NOISELESS 
  T_Measured   27            
   T_Current -273.15         
           R    1            


**** 01/10/25 21:12:41 **** PSpice 23.1.0 (30 January 2024) *** ID# 0 ********

 ** Profile: "TRANS-Trans"  [ E:\Onedrive\Universidad\UTN\Materias\6\proyecto_final\Kicad\vlc_hardware\vlc_hardware\Transmitter\FCA\S


 ****     Voltage Controlled Switch MODEL PARAMETERS


******************************************************************************




               X_fcaamp_U1.X_S11._S11 
         RON    1.000000E-03 
        ROFF    1            
         VON    1.3          
        VOFF    1            


               X_fcaamp_U1.X_S12._S12 
         RON    1.000000E-03 
        ROFF    1            
         VON    1.3          
        VOFF    1            


               X_fcaamp_U1.X_S29._S29 
         RON    1.000000E+09 
        ROFF    1            
         VON    2            
        VOFF     .8          


               X_fcaamp_U1.X_S30._S30 
         RON    1            
        ROFF    1.000000E-06 
         VON  100.000000E-06 
        VOFF    0            


               X_fcaamp_U1.X_S31._S31 
         RON    1            
        ROFF    1.000000E-06 
         VON  100.000000E-06 
        VOFF    0            


               X_fcaamp_U1.X_S36._S36 
         RON    1.000000E-03 
        ROFF    2.000000E+03 
         VON     .05         
        VOFF    -.05         


               X_fcaamp_U1.X_S37._S37 
         RON    1.000000E-03 
        ROFF    2.000000E+03 
         VON     .05         
        VOFF    -.05         


               X_fcaamp_U1.X_S38._S38 
         RON    1.000000E+09 
        ROFF    1.000000E-03 
         VON    2            
        VOFF     .8          


               X_fcaamp_U1.X_S39._S39 
         RON     .2          
        ROFF    1.2          
         VON     .01         
        VOFF    -.01         


               X_fcaamp_U1.X_S40._S40 
         RON     .2          
        ROFF    1.2          
         VON     .01         
        VOFF    -.01         


               X_fcaamp_U1.X_S41._S41 
         RON    1.000000E-03 
        ROFF    2.000000E+03 
         VON     .1          
        VOFF    -.1          


               X_fcaamp_U1.X_S42._S42 
         RON    1.000000E-03 
        ROFF    2.000000E+03 
         VON     .1          
        VOFF    -.1          


**** 01/10/25 21:12:41 **** PSpice 23.1.0 (30 January 2024) *** ID# 0 ********

 ** Profile: "TRANS-Trans"  [ E:\Onedrive\Universidad\UTN\Materias\6\proyecto_final\Kicad\vlc_hardware\vlc_hardware\Transmitter\FCA\S


 ****     Current Controlled Switch MODEL PARAMETERS


******************************************************************************




               X_fcaamp_U1.X_W1._W1 
         RON    1.000000E+06 
        ROFF    1.000000E-03 
         ION    5            
        IOFF    4.7          


               X_fcaamp_U1.X_W2._W2 
         RON    1.000000E+06 
        ROFF    1.000000E-03 
         ION    5            
        IOFF    4.7          


**** 01/10/25 21:12:41 **** PSpice 23.1.0 (30 January 2024) *** ID# 0 ********

 ** Profile: "TRANS-Trans"  [ E:\Onedrive\Universidad\UTN\Materias\6\proyecto_final\Kicad\vlc_hardware\vlc_hardware\Transmitter\FCA\S


 ****     INITIAL TRANSIENT SOLUTION       TEMPERATURE =   27.000 DEG C


******************************************************************************



 NODE   VOLTAGE     NODE   VOLTAGE     NODE   VOLTAGE     NODE   VOLTAGE


( VFCA)    0.0000  ( VLED)    0.0000  (N46541)    0.0000 (N56871)    5.0000     

(N57081)    0.0000 (N57095)    0.0000 (N57107)    0.0000 (VFILTER)    0.0000    

(VSOURCE)    0.0000                   (led_N00174)    0.0000                    

(led_N00178)    0.0000                (fcaamp_N47288)    2.5250                 

(fcaamp_N47474)    2.5191             (fcaamp_N47490)    2.5191                 

(fcaamp_N47546)    2.5215             (fcaamp_N47572)    0.0000                 

(filter_N00199)    0.0000             (filter_N00291)    0.0000                 

(filter_N00638)    0.0000             (fcaamp_N477020)    2.5215                

(X_fcaamp_U1.MID)    2.5000           (X_fcaamp_U1.AOL2)    2.5191              

(X_fcaamp_U1.AOL3)    2.5191          (X_fcaamp_U1.CMRR)    2.5000              

(X_fcaamp_U1.CREF)   27.0000          (X_fcaamp_U1.IMON)-6.023E-06              

(X_fcaamp_U1.SLEW)    2.5191          (X_fcaamp_U1.ZOUT)    2.5191              

(X_fcaamp_U1.PSRRM)    2.4958         (X_fcaamp_U1.PSRRP)    2.5029             

(X_fcaamp_U1.TEMPC)   28.0000         (X_fcaamp_U1.VCC_B)    4.9975             

(X_fcaamp_U1.VEE_B)     .0025         (X_fcaamp_U1.ZOUTL)    2.5191             

(X_fcaamp_U1.AOLOUT)    2.5191        (X_fcaamp_U1.PREMID)    2.5000            

(X_fcaamp_U1.X_U1.3)    0.0000        (X_fcaamp_U1.X_U1.4)    0.0000            

(X_fcaamp_U1.X_U1.5)    0.0000        (X_fcaamp_U1.X_U1.6)    0.0000            

(X_fcaamp_U1.X_U1.7)     .8338        (X_fcaamp_U1.X_U1.8)     .8338            

(X_fcaamp_U1.X_U3.3)    0.0000        (X_fcaamp_U1.X_U3.4)    0.0000            

(X_fcaamp_U1.X_U3.5)    0.0000        (X_fcaamp_U1.X_U3.6)    0.0000            

(X_fcaamp_U1.X_U3.7)     .8338        (X_fcaamp_U1.X_U3.8)     .8338            

(X_fcaamp_U1.X_U4.3)    0.0000        (X_fcaamp_U1.X_U4.4)    0.0000            

(X_fcaamp_U1.X_U4.5)    0.0000        (X_fcaamp_U1.X_U4.6)    0.0000            

(X_fcaamp_U1.X_U4.7)     .8338        (X_fcaamp_U1.X_U4.8)     .8338            

(X_fcaamp_U1.N460322)-6.023E-12       (X_fcaamp_U1.N461004) 6.958E-12           

(X_fcaamp_U1.N462608)    2.5026       (X_fcaamp_U1.N463406)    2.5145           

(X_fcaamp_U1.N463410)    2.5145       (X_fcaamp_U1.N463418)    2.5215           

(X_fcaamp_U1.N465370)     .0138       (X_fcaamp_U1.N465486) 16.49E-06           

(X_fcaamp_U1.N505726)   -8.1587       (X_fcaamp_U1.N516672)    2.5191           

(X_fcaamp_U1.N938010)    2.5145       (X_fcaamp_U1.N940824)    2.5975           

(X_fcaamp_U1.N940832)    2.4025       (X_fcaamp_U1.N956734)    2.5191           

(X_fcaamp_U1.N956866)    2.5191       (X_fcaamp_U1.N956884)    2.5191           

(X_fcaamp_U1.N956892)    2.5191       (X_fcaamp_U1.N957030)    2.5000           

(X_fcaamp_U1.N957036)    2.5000       (X_fcaamp_U1.N957042)    2.5191           

(X_fcaamp_U1.N957214)    2.5191       (X_fcaamp_U1.N957264)    2.5191           

(X_fcaamp_U1.N959235)    2.5215       (X_fcaamp_U1.N973734)    2.5191           

(X_fcaamp_U1.N973764)    2.5191       (X_fcaamp_U1.N973790)    2.5191           

(X_fcaamp_U1.VCC_CLP)    3.8975       (X_fcaamp_U1.VEE_CLP)    1.1025           

(X_fcaamp_U1.N1346042)    9.9850      (X_fcaamp_U1.N1410320)    2.5191          

(X_fcaamp_U1.N1410360)    2.5191      (X_fcaamp_U1.N1415236)    2.5191      




    VOLTAGE SOURCE CURRENTS
    NAME         CURRENT

    V_V5        -1.674E-02
    V_V1         0.000E+00
    X_fcaamp_U1.V_V14   0.000E+00
    X_fcaamp_U1.V_VCMH   0.000E+00
    X_fcaamp_U1.V_VCML   0.000E+00
    X_fcaamp_U1.X_H4.VH_H4  -6.023E-06
    X_fcaamp_U1.X_W1.VW_W1  -1.064E-15
    X_fcaamp_U1.X_W2.VW_W2   0.000E+00

    TOTAL POWER DISSIPATION   8.37E-02  WATTS


ERROR(ORPSIM-15138): Convergence problem in Transient Analysis at Time =  27.76E-09.
         Time step =  745.1E-21, minimum allowable step size =  1.000E-18

  These voltages failed to converge:

    V(VFCA)                   =     1.015V  \     1.004V
    V(fcaamp_N47474)          =     3.702V  \     3.691V
    V(fcaamp_N47490)          =     3.560V  \     3.549V
    V(X_fcaamp_U1.N957042)    =     5.877V  \     3.973V
    V(X_fcaamp_U1.AOL3)       =     5.877V  \     3.973V
    V(X_fcaamp_U1.IMON)       =   143.45mV  \   143.23mV
    V(X_fcaamp_U1.N460322)    =   143.45mV  \   143.23mV
    V(X_fcaamp_U1.N957036)    =     4.328V  \     2.424V
    V(X_fcaamp_U1.ZOUT)       =     3.702V  \     3.691V
    V(X_fcaamp_U1.N1415236)   =     3.702V  \     3.691V

  These supply currents failed to converge:

    I(e.T_T5.eA1)             =   141.28mA  \   141.14mA
    I(X_fcaamp_U1.E_E5)       =  -143.47mA  \  -143.23mA
    I(X_fcaamp_U1.E_E8)       =  -143.98mA  \  -143.83mA
    I(X_fcaamp_U1.X_U1.E3)    =    72.52uA  \    1.415uA
    I(X_fcaamp_U1.X_U6.E1)    =   -72.52uA  \   -1.415uA
    IA(T_T5)                  =   141.35mA  \   141.14mA
    I(V_V5)                   =  -160.15mA  \  -159.94mA
    I(X_fcaamp_U1.X_H4.VH_H4) =   143.45mA  \   143.23mA



  Last node voltages tried were:

 NODE   VOLTAGE     NODE   VOLTAGE     NODE   VOLTAGE     NODE   VOLTAGE


( VFCA)    1.0148  ( VLED)     .0148  (N46541)     .6469 (N56871)    5.0000     

(N57081)     .3485 (N57095)     .3323 (N57107)     .3415 (VFILTER)     .3086    

(VSOURCE)     .3248                   (led_N00174)     .1520                    

(led_N00178)     .0869                (fcaamp_N47288)    2.8570                 

(fcaamp_N47474)    3.7015             (fcaamp_N47490)    3.5601                 

(fcaamp_N47546)    2.8498             (fcaamp_N47572)     .3318                 

(filter_N00199)     .7150             (filter_N00291)     .3079                 

(filter_N00638)     .3054             (fcaamp_N477020)    2.5216                

(X_fcaamp_U1.MID)    2.5000           (X_fcaamp_U1.AOL2)    4.1275              

(X_fcaamp_U1.AOL3)    5.8774          (X_fcaamp_U1.CMRR)    2.5043              

(X_fcaamp_U1.CREF)   27.0000          (X_fcaamp_U1.IMON)     .1434              

(X_fcaamp_U1.SLEW)    4.1275          (X_fcaamp_U1.ZOUT)    3.7016              

(X_fcaamp_U1.PSRRM)    2.4958         (X_fcaamp_U1.PSRRP)    2.5029             

(X_fcaamp_U1.TEMPC)   28.0000         (X_fcaamp_U1.VCC_B)    4.9975             

(X_fcaamp_U1.VEE_B)     .0025         (X_fcaamp_U1.ZOUTL)    3.8809             

(X_fcaamp_U1.AOLOUT)    4.0308        (X_fcaamp_U1.PREMID)    2.5000            

(X_fcaamp_U1.X_U1.3)    0.0000        (X_fcaamp_U1.X_U1.4)    0.0000            

(X_fcaamp_U1.X_U1.5)    0.0000        (X_fcaamp_U1.X_U1.6)    0.0000            

(X_fcaamp_U1.X_U1.7)     .8338        (X_fcaamp_U1.X_U1.8)     .8338            

(X_fcaamp_U1.X_U3.3)    0.0000        (X_fcaamp_U1.X_U3.4)    0.0000            

(X_fcaamp_U1.X_U3.5)    0.0000        (X_fcaamp_U1.X_U3.6)    0.0000            

(X_fcaamp_U1.X_U3.7)     .8338        (X_fcaamp_U1.X_U3.8)     .8338            

(X_fcaamp_U1.X_U4.3)    0.0000        (X_fcaamp_U1.X_U4.4)    0.0000            

(X_fcaamp_U1.X_U4.5)    0.0000        (X_fcaamp_U1.X_U4.6)    0.0000            

(X_fcaamp_U1.X_U4.7)     .8338        (X_fcaamp_U1.X_U4.8)     .8338            

(X_fcaamp_U1.N460322)     .1434       (X_fcaamp_U1.N461004)-143.4E-09           

(X_fcaamp_U1.N462608)    2.5198       (X_fcaamp_U1.N463406)    2.8465           

(X_fcaamp_U1.N463410)    2.8508       (X_fcaamp_U1.N463418)    2.8579           

(X_fcaamp_U1.N465370)     .0138       (X_fcaamp_U1.N465486) 16.49E-06           

(X_fcaamp_U1.N505726)   -8.1587       (X_fcaamp_U1.N516672)    4.1280           

(X_fcaamp_U1.N938010)    2.8465       (X_fcaamp_U1.N940824)    2.5975           

(X_fcaamp_U1.N940832)    2.4025       (X_fcaamp_U1.N956734)    4.0496           

(X_fcaamp_U1.N956866)    4.0242       (X_fcaamp_U1.N956884)    4.0241           

(X_fcaamp_U1.N956892)    4.0198       (X_fcaamp_U1.N957030)    2.5298           

(X_fcaamp_U1.N957036)    4.3278       (X_fcaamp_U1.N957042)    5.8774           

(X_fcaamp_U1.N957214)    3.9523       (X_fcaamp_U1.N957264)    3.9550           

(X_fcaamp_U1.N959235)    2.8579       (X_fcaamp_U1.N973734)    4.1280           

(X_fcaamp_U1.N973764)    4.1275       (X_fcaamp_U1.N973790)    4.1278           

(X_fcaamp_U1.VCC_CLP)    3.7541       (X_fcaamp_U1.VEE_CLP)     .8156           

(X_fcaamp_U1.N1346042)    9.9850      (X_fcaamp_U1.N1410320)    4.0290          

(X_fcaamp_U1.N1410360)    4.0308      (X_fcaamp_U1.N1415236)    3.7015      


**** Interrupt ****
