
**** 01/10/25 21:44:24 **** PSpice 23.1.0 (30 January 2024) *** ID# 0 ********

 ** Profile: "TRANS-Trans"  [ E:\Onedrive\Universidad\UTN\Materias\6\proyecto_final\Kicad\vlc_hardware\vlc_hardware\Transmitter\FCA\S


 ****     CIRCUIT DESCRIPTION


******************************************************************************




** Creating circuit file "Trans.cir" 
** WARNING: THIS AUTOMATICALLY GENERATED FILE MAY BE OVERWRITTEN BY SUBSEQUENT SIMULATIONS

*Libraries: 
* Profile Libraries :
* Local Libraries :
.LIB "../../../library/infineon-rftransistor-spice.lib-sm-v02_10-en.lib" 
* From [PSPICE NETLIST] section of C:\cds_spb_home\cdssetup\OrCAD_PSpiceTIPSpice_Install\23.1.0\PSpice.ini file:
.lib "nom_pspti.lib" 
.lib "nom.lib" 

*Analysis directives: 
.TRAN  0 100us 0 SKIPBP 
.OPTIONS ADVCONV
.OPTIONS FILEMODELSEARCH
.PROBE64 V(alias(*)) I(alias(*)) W(alias(*)) D(alias(*)) NOISE(alias(*)) 
.INC "..\TRANS.net" 



**** INCLUDING TRANS.net ****
* source LUMICOM_TRANS
X_FCA-AMP_U1         FCA-AMP_N47288 FCA-AMP_N47546 FCA-AMP_N47474 N62560 0
+  N62560 N62560 OPA2675
R_FCA-AMP_R5         FCA-AMP_N47474 FCA-AMP_N47490  1 TC=0,0 
R_FCA-AMP_R2         FCA-AMP_N47546 FCA-AMP_N477020  133 TC=0,0 
R_FCA-AMP_R3         FCA-AMP_N47288 0  10k TC=0,0 
C_FCA-AMP_C2         FCA-AMP_N47490 N62605  .1uF  TC=0,0 
C_FCA-AMP_C5         FCA-AMP_N47572 FCA-AMP_N47288  .1u  TC=0,0 
R_FCA-AMP_R14         0 FCA-AMP_N47572  50 TC=0,0 
R_FCA-AMP_R1         FCA-AMP_N47474 FCA-AMP_N47546  402 TC=0,0 
C_FCA-AMP_C6         0 FCA-AMP_N477020  .1uF  TC=0,0 
C_FCA-AMP_C1         N62720 FCA-AMP_N47288  .1u  TC=0,0 
R_FCA-AMP_R4         N62560 FCA-AMP_N47288  10k TC=0,0 
V_V1         N62560 0 0Vdc
V_V2         N62513 0  AC 1
+SIN 0 1 1E6 0 0 0
R_R1         0 N62605  1 TC=0,0 
R_R2         N62720 N62513  50 TC=0,0 
.PARAM  rpi=1

**** RESUMING Trans.cir ****
.END

**** 01/10/25 21:44:24 **** PSpice 23.1.0 (30 January 2024) *** ID# 0 ********

 ** Profile: "TRANS-Trans"  [ E:\Onedrive\Universidad\UTN\Materias\6\proyecto_final\Kicad\vlc_hardware\vlc_hardware\Transmitter\FCA\S


 ****     Diode MODEL PARAMETERS


******************************************************************************




               X_FCA-AMP_U1.X_U1.DVN 
          IS  100.000000E-18 
          KF  100.000000E-12 


               X_FCA-AMP_U1.X_U3.DVNF 
          IS  100.000000E-18 
          KF  100.000000E-12 


               X_FCA-AMP_U1.X_U4.DVNF 
          IS  100.000000E-18 
          KF  100.000000E-12 


**** 01/10/25 21:44:24 **** PSpice 23.1.0 (30 January 2024) *** ID# 0 ********

 ** Profile: "TRANS-Trans"  [ E:\Onedrive\Universidad\UTN\Materias\6\proyecto_final\Kicad\vlc_hardware\vlc_hardware\Transmitter\FCA\S


 ****     Resistor MODEL PARAMETERS


******************************************************************************




               X_FCA-AMP_U1.R_NOISELESS 
  T_Measured   27            
   T_Current -273.15         
           R    1            


**** 01/10/25 21:44:24 **** PSpice 23.1.0 (30 January 2024) *** ID# 0 ********

 ** Profile: "TRANS-Trans"  [ E:\Onedrive\Universidad\UTN\Materias\6\proyecto_final\Kicad\vlc_hardware\vlc_hardware\Transmitter\FCA\S


 ****     Voltage Controlled Switch MODEL PARAMETERS


******************************************************************************




               X_FCA-AMP_U1.X_S11._S11 
         RON    1.000000E-03 
        ROFF    1            
         VON    1.3          
        VOFF    1            


               X_FCA-AMP_U1.X_S12._S12 
         RON    1.000000E-03 
        ROFF    1            
         VON    1.3          
        VOFF    1            


               X_FCA-AMP_U1.X_S29._S29 
         RON    1.000000E+09 
        ROFF    1            
         VON    2            
        VOFF     .8          


               X_FCA-AMP_U1.X_S30._S30 
         RON    1            
        ROFF    1.000000E-06 
         VON  100.000000E-06 
        VOFF    0            


               X_FCA-AMP_U1.X_S31._S31 
         RON    1            
        ROFF    1.000000E-06 
         VON  100.000000E-06 
        VOFF    0            


               X_FCA-AMP_U1.X_S36._S36 
         RON    1.000000E-03 
        ROFF    2.000000E+03 
         VON     .05         
        VOFF    -.05         


               X_FCA-AMP_U1.X_S37._S37 
         RON    1.000000E-03 
        ROFF    2.000000E+03 
         VON     .05         
        VOFF    -.05         


               X_FCA-AMP_U1.X_S38._S38 
         RON    1.000000E+09 
        ROFF    1.000000E-03 
         VON    2            
        VOFF     .8          


               X_FCA-AMP_U1.X_S39._S39 
         RON     .2          
        ROFF    1.2          
         VON     .01         
        VOFF    -.01         


               X_FCA-AMP_U1.X_S40._S40 
         RON     .2          
        ROFF    1.2          
         VON     .01         
        VOFF    -.01         


               X_FCA-AMP_U1.X_S41._S41 
         RON    1.000000E-03 
        ROFF    2.000000E+03 
         VON     .1          
        VOFF    -.1          


               X_FCA-AMP_U1.X_S42._S42 
         RON    1.000000E-03 
        ROFF    2.000000E+03 
         VON     .1          
        VOFF    -.1          


**** 01/10/25 21:44:24 **** PSpice 23.1.0 (30 January 2024) *** ID# 0 ********

 ** Profile: "TRANS-Trans"  [ E:\Onedrive\Universidad\UTN\Materias\6\proyecto_final\Kicad\vlc_hardware\vlc_hardware\Transmitter\FCA\S


 ****     Current Controlled Switch MODEL PARAMETERS


******************************************************************************




               X_FCA-AMP_U1.X_W1._W1 
         RON    1.000000E+06 
        ROFF    1.000000E-03 
         ION    5            
        IOFF    4.7          


               X_FCA-AMP_U1.X_W2._W2 
         RON    1.000000E+06 
        ROFF    1.000000E-03 
         ION    5            
        IOFF    4.7          



          JOB CONCLUDED

**** 01/10/25 21:44:24 **** PSpice 23.1.0 (30 January 2024) *** ID# 0 ********

 ** Profile: "TRANS-Trans"  [ E:\Onedrive\Universidad\UTN\Materias\6\proyecto_final\Kicad\vlc_hardware\vlc_hardware\Transmitter\FCA\S


 ****     JOB STATISTICS SUMMARY


******************************************************************************



  Total job time (using Solver 1)   =         .78
