
**** 01/10/25 21:34:20 **** PSpice 23.1.0 (30 January 2024) *** ID# 0 ********

 ** Profile: "TRANS-Trans"  [ E:\Onedrive\Universidad\UTN\Materias\6\proyecto_final\Kicad\vlc_hardware\vlc_hardware\Transmitter\FCA\S


 ****     CIRCUIT DESCRIPTION


******************************************************************************




** Creating circuit file "Trans.cir" 
** WARNING: THIS AUTOMATICALLY GENERATED FILE MAY BE OVERWRITTEN BY SUBSEQUENT SIMULATIONS

*Libraries: 
* Profile Libraries :
* Local Libraries :
.LIB "../../../library/infineon-rftransistor-spice.lib-sm-v02_10-en.lib" 
* From [PSPICE NETLIST] section of C:\cds_spb_home\cdssetup\OrCAD_PSpiceTIPSpice_Install\23.1.0\PSpice.ini file:
.lib "nom_pspti.lib" 
.lib "nom.lib" 

*Analysis directives: 
.TRAN  0 100us 0 SKIPBP 
.OPTIONS ADVCONV
.OPTIONS FILEMODELSEARCH
.PROBE64 V(alias(*)) I(alias(*)) W(alias(*)) D(alias(*)) NOISE(alias(*)) 
.INC "..\TRANS.net" 



**** INCLUDING TRANS.net ****
* source LUMICOM_TRANS
R_R13         N46541 VSOURCE  50 TC=0,0 
V_V1         N46541 0  AC 1
+SIN 0 1 1E6 0 0 0
X_U1         N60212 N60418 N60360 N60158 0 0 0 OPA2675
R_R3         N60212 0  10k TC=0,0 
R_R14         0 N60428  50 TC=0,0 
R_R2         N60418 N62200  133 TC=0,0 
R_R5         N60360 N60370  1 TC=0,0 
R_R4         N60158 N60212  10k TC=0,0 
C_C5         N60428 N60212  .1u  TC=0,0 
C_C1         VSOURCE N60212  .1u  TC=0,0 
C_C2         N60370 N61260  .1uF  TC=0,0 
R_R1         N60360 N60418  402 TC=0,0 
C_C6         0 N62200  .1uF  TC=0,0 
V_V2         N60158 0 5
R_R15         0 N61260  1 TC=0,0 
C_C7         0 N60158  100uF  TC=0,0 
.PARAM  rpi=1

**** RESUMING Trans.cir ****
.END

**** 01/10/25 21:34:20 **** PSpice 23.1.0 (30 January 2024) *** ID# 0 ********

 ** Profile: "TRANS-Trans"  [ E:\Onedrive\Universidad\UTN\Materias\6\proyecto_final\Kicad\vlc_hardware\vlc_hardware\Transmitter\FCA\S


 ****     Diode MODEL PARAMETERS


******************************************************************************




               X_U1.X_U1.DVN   X_U1.X_U3.DVNF  X_U1.X_U4.DVNF  
          IS  100.000000E-18  100.000000E-18  100.000000E-18 
          KF  100.000000E-12  100.000000E-12  100.000000E-12 


**** 01/10/25 21:34:20 **** PSpice 23.1.0 (30 January 2024) *** ID# 0 ********

 ** Profile: "TRANS-Trans"  [ E:\Onedrive\Universidad\UTN\Materias\6\proyecto_final\Kicad\vlc_hardware\vlc_hardware\Transmitter\FCA\S


 ****     Resistor MODEL PARAMETERS


******************************************************************************




               X_U1.R_NOISELESS 
  T_Measured   27            
   T_Current -273.15         
           R    1            


**** 01/10/25 21:34:20 **** PSpice 23.1.0 (30 January 2024) *** ID# 0 ********

 ** Profile: "TRANS-Trans"  [ E:\Onedrive\Universidad\UTN\Materias\6\proyecto_final\Kicad\vlc_hardware\vlc_hardware\Transmitter\FCA\S


 ****     Voltage Controlled Switch MODEL PARAMETERS


******************************************************************************




               X_U1.X_S11._S11 X_U1.X_S12._S12 X_U1.X_S29._S29 X_U1.X_S30._S30 
         RON    1.000000E-03    1.000000E-03    1.000000E+09    1            
        ROFF    1               1               1               1.000000E-06 
         VON    1.3             1.3             2             100.000000E-06 
        VOFF    1               1                .8             0            


               X_U1.X_S31._S31 X_U1.X_S36._S36 X_U1.X_S37._S37 X_U1.X_S38._S38 
         RON    1               1.000000E-03    1.000000E-03    1.000000E+09 
        ROFF    1.000000E-06    2.000000E+03    2.000000E+03    1.000000E-03 
         VON  100.000000E-06     .05             .05            2            
        VOFF    0               -.05            -.05             .8          


               X_U1.X_S39._S39 X_U1.X_S40._S40 X_U1.X_S41._S41 X_U1.X_S42._S42 
         RON     .2              .2             1.000000E-03    1.000000E-03 
        ROFF    1.2             1.2             2.000000E+03    2.000000E+03 
         VON     .01             .01             .1              .1          
        VOFF    -.01            -.01            -.1             -.1          


**** 01/10/25 21:34:20 **** PSpice 23.1.0 (30 January 2024) *** ID# 0 ********

 ** Profile: "TRANS-Trans"  [ E:\Onedrive\Universidad\UTN\Materias\6\proyecto_final\Kicad\vlc_hardware\vlc_hardware\Transmitter\FCA\S


 ****     Current Controlled Switch MODEL PARAMETERS


******************************************************************************




               X_U1.X_W1._W1   X_U1.X_W2._W2   
         RON    1.000000E+06    1.000000E+06 
        ROFF    1.000000E-03    1.000000E-03 
         ION    5               5            
        IOFF    4.7             4.7          



          JOB CONCLUDED

**** 01/10/25 21:34:20 **** PSpice 23.1.0 (30 January 2024) *** ID# 0 ********

 ** Profile: "TRANS-Trans"  [ E:\Onedrive\Universidad\UTN\Materias\6\proyecto_final\Kicad\vlc_hardware\vlc_hardware\Transmitter\FCA\S


 ****     JOB STATISTICS SUMMARY


******************************************************************************



  Total job time (using Solver 1)   =         .72
